
**** 04/06/25 14:41:44 ******* PSpice Lite (March 2016) ******* ID# 10813 ****

 LAB1


 ****     CIRCUIT DESCRIPTION


******************************************************************************




.LIB "EVAL.LIB"

V1 1 0 DC 1
D1 1 0 D1N4148

.DC V1 0 1 0.01
.TEMP 0 25 50
.PROBE
.END

**** 04/06/25 14:41:44 ******* PSpice Lite (March 2016) ******* ID# 10813 ****

 LAB1


 ****     Diode MODEL PARAMETERS


******************************************************************************




               D1N4148         
          IS    2.682000E-09 
           N    1.836        
         ISR    1.565000E-09 
         IKF     .04417      
          BV  100            
         IBV  100.000000E-06 
          RS     .5664       
          TT   11.540000E-09 
         CJO    4.000000E-12 
          VJ     .5          
           M     .3333       


**** 04/06/25 14:41:44 ******* PSpice Lite (March 2016) ******* ID# 10813 ****

 LAB1


 ****     TEMPERATURE-ADJUSTED VALUES      TEMPERATURE =    0.000 DEG C


******************************************************************************




 **** DIODE MODEL PARAMETERS

                   D1N4148    

         IS        2.281E-10  
         VJ        5.690E-01  
        CJO        3.802E-12  
         RS        5.664E-01  
        IKF        4.417E-02  
         BV        1.000E+02  


**** 04/06/25 14:41:44 ******* PSpice Lite (March 2016) ******* ID# 10813 ****

 LAB1


 ****     TEMPERATURE-ADJUSTED VALUES      TEMPERATURE =   25.000 DEG C


******************************************************************************




 **** DIODE MODEL PARAMETERS

                   D1N4148    

         IS        2.268E-09  
         VJ        5.051E-01  
        CJO        3.985E-12  
         RS        5.664E-01  
        IKF        4.417E-02  
         BV        1.000E+02  


**** 04/06/25 14:41:44 ******* PSpice Lite (March 2016) ******* ID# 10813 ****

 LAB1


 ****     TEMPERATURE-ADJUSTED VALUES      TEMPERATURE =   50.000 DEG C


******************************************************************************




 **** DIODE MODEL PARAMETERS

                   D1N4148    

         IS        1.597E-08  
         VJ        4.404E-01  
        CJO        4.171E-12  
         RS        5.664E-01  
        IKF        4.417E-02  
         BV        1.000E+02  



          JOB CONCLUDED

**** 04/06/25 14:41:44 ******* PSpice Lite (March 2016) ******* ID# 10813 ****

 LAB1


 ****     JOB STATISTICS SUMMARY


******************************************************************************



  Total job time (using Solver 1)   =         .03
