
**** 04/06/25 21:27:44 ******* PSpice Lite (March 2016) ******* ID# 10813 ****

 LAB4


 ****     CIRCUIT DESCRIPTION


******************************************************************************




.LIB "EVAL.LIB"

.PARAM AMP = 0

VIN 1 0 AC {AMP}
R1 1 2 1K

D1 2 3 D1N4148
V1 3 0 DC 5

D2 4 2 D1N4148
V2 0 4 DC 4

*.STEP LIN PARAM AMP -8 8 1

.DC VIN -20 20 1

.PROBE

.END

**** 04/06/25 21:27:44 ******* PSpice Lite (March 2016) ******* ID# 10813 ****

 LAB4


 ****     Diode MODEL PARAMETERS


******************************************************************************




               D1N4148         
          IS    2.682000E-09 
           N    1.836        
         ISR    1.565000E-09 
         IKF     .04417      
          BV  100            
         IBV  100.000000E-06 
          RS     .5664       
          TT   11.540000E-09 
         CJO    4.000000E-12 
          VJ     .5          
           M     .3333       



          JOB CONCLUDED

**** 04/06/25 21:27:44 ******* PSpice Lite (March 2016) ******* ID# 10813 ****

 LAB4


 ****     JOB STATISTICS SUMMARY


******************************************************************************



  Total job time (using Solver 1)   =        0.00
