
**** 03/22/25 16:22:05 ******* PSpice Lite (March 2016) ******* ID# 10813 ****

 Lab1


 ****     CIRCUIT DESCRIPTION


******************************************************************************




V1 1 0 AC 1

R1 1 2 1k
C1 2 0 159n

.AC DEC 100 1 1MEG

.PROBE
.END

**** 03/22/25 16:22:05 ******* PSpice Lite (March 2016) ******* ID# 10813 ****

 Lab1


 ****     SMALL SIGNAL BIAS SOLUTION       TEMPERATURE =   27.000 DEG C


******************************************************************************



 NODE   VOLTAGE     NODE   VOLTAGE     NODE   VOLTAGE     NODE   VOLTAGE


(    1)    0.0000  (    2)    0.0000  




    VOLTAGE SOURCE CURRENTS
    NAME         CURRENT

    V1           0.000E+00

    TOTAL POWER DISSIPATION   0.00E+00  WATTS



          JOB CONCLUDED

**** 03/22/25 16:22:05 ******* PSpice Lite (March 2016) ******* ID# 10813 ****

 Lab1


 ****     JOB STATISTICS SUMMARY


******************************************************************************



  Total job time (using Solver 1)   =        0.00
