
**** 03/22/25 16:42:01 ******* PSpice Lite (March 2016) ******* ID# 10813 ****

 Lab2


 ****     CIRCUIT DESCRIPTION


******************************************************************************




.PARAM RESISTANCE = 100

V1 1 0 AC 1

R1 1 2 {RESISTANCE}
C1 2 0 159n

.AC DEC 2 1 100K
.STEP DEC PARAM RESISTANCE 100 10K 2 
.PROBE
.END

**** 03/22/25 16:42:01 ******* PSpice Lite (March 2016) ******* ID# 10813 ****

 Lab2


 ****     SMALL SIGNAL BIAS SOLUTION       TEMPERATURE =   27.000 DEG C

 ****     CURRENT STEP                     PARAM RESISTANCE =  100   


******************************************************************************



 NODE   VOLTAGE     NODE   VOLTAGE     NODE   VOLTAGE     NODE   VOLTAGE


(    1)    0.0000  (    2)    0.0000  




    VOLTAGE SOURCE CURRENTS
    NAME         CURRENT

    V1           0.000E+00

    TOTAL POWER DISSIPATION   0.00E+00  WATTS


**** 03/22/25 16:42:01 ******* PSpice Lite (March 2016) ******* ID# 10813 ****

 Lab2


 ****     SMALL SIGNAL BIAS SOLUTION       TEMPERATURE =   27.000 DEG C

 ****     CURRENT STEP                     PARAM RESISTANCE =  316.23


******************************************************************************



 NODE   VOLTAGE     NODE   VOLTAGE     NODE   VOLTAGE     NODE   VOLTAGE


(    1)    0.0000  (    2)    0.0000  




    VOLTAGE SOURCE CURRENTS
    NAME         CURRENT

    V1           0.000E+00

    TOTAL POWER DISSIPATION   0.00E+00  WATTS


**** 03/22/25 16:42:01 ******* PSpice Lite (March 2016) ******* ID# 10813 ****

 Lab2


 ****     SMALL SIGNAL BIAS SOLUTION       TEMPERATURE =   27.000 DEG C

 ****     CURRENT STEP                     PARAM RESISTANCE =    1.0000E+03


******************************************************************************



 NODE   VOLTAGE     NODE   VOLTAGE     NODE   VOLTAGE     NODE   VOLTAGE


(    1)    0.0000  (    2)    0.0000  




    VOLTAGE SOURCE CURRENTS
    NAME         CURRENT

    V1           0.000E+00

    TOTAL POWER DISSIPATION   0.00E+00  WATTS


**** 03/22/25 16:42:01 ******* PSpice Lite (March 2016) ******* ID# 10813 ****

 Lab2


 ****     SMALL SIGNAL BIAS SOLUTION       TEMPERATURE =   27.000 DEG C

 ****     CURRENT STEP                     PARAM RESISTANCE =    3.1623E+03


******************************************************************************



 NODE   VOLTAGE     NODE   VOLTAGE     NODE   VOLTAGE     NODE   VOLTAGE


(    1)    0.0000  (    2)    0.0000  




    VOLTAGE SOURCE CURRENTS
    NAME         CURRENT

    V1           0.000E+00

    TOTAL POWER DISSIPATION   0.00E+00  WATTS


**** 03/22/25 16:42:01 ******* PSpice Lite (March 2016) ******* ID# 10813 ****

 Lab2


 ****     SMALL SIGNAL BIAS SOLUTION       TEMPERATURE =   27.000 DEG C

 ****     CURRENT STEP                     PARAM RESISTANCE =   10.0000E+03


******************************************************************************



 NODE   VOLTAGE     NODE   VOLTAGE     NODE   VOLTAGE     NODE   VOLTAGE


(    1)    0.0000  (    2)    0.0000  




    VOLTAGE SOURCE CURRENTS
    NAME         CURRENT

    V1           0.000E+00

    TOTAL POWER DISSIPATION   0.00E+00  WATTS



          JOB CONCLUDED

**** 03/22/25 16:42:01 ******* PSpice Lite (March 2016) ******* ID# 10813 ****

 Lab2


 ****     JOB STATISTICS SUMMARY

 ****     CURRENT STEP                     PARAM RESISTANCE =   10.0000E+03


******************************************************************************



  Total job time (using Solver 1)   =         .02
