
**** 03/22/25 14:40:19 ******* PSpice Lite (March 2016) ******* ID# 10813 ****

 Lab5


 ****     CIRCUIT DESCRIPTION


******************************************************************************




R1 2 1 10

L1 3 6 3.183M
RL 5 6 1P

C1 3 4 31.83U

VX 4 1 0

V1 2 0 AC 20 90
V2 1 0 AC 5 0
V3 5 0 AC 20

F1 2 1 VX 2
E1 1 3 2 1 3

.AC LIN 1 500 500 
.PRINT AC IM(V1) IM(V2) IM(V3) IP(V1) IP(V2) IP(V3)
.END

**** 03/22/25 14:40:19 ******* PSpice Lite (March 2016) ******* ID# 10813 ****

 Lab5


 ****     SMALL SIGNAL BIAS SOLUTION       TEMPERATURE =   27.000 DEG C


******************************************************************************



 NODE   VOLTAGE     NODE   VOLTAGE     NODE   VOLTAGE     NODE   VOLTAGE


(    1)    0.0000  (    2)    0.0000  (    3)    0.0000  (    4)    0.0000      

(    5)    0.0000  (    6)    0.0000  




    VOLTAGE SOURCE CURRENTS
    NAME         CURRENT

    VX           0.000E+00
    V1           0.000E+00
    V2           0.000E+00
    V3           0.000E+00

    TOTAL POWER DISSIPATION   0.00E+00  WATTS


**** 03/22/25 14:40:19 ******* PSpice Lite (March 2016) ******* ID# 10813 ****

 Lab5


 ****     AC ANALYSIS                      TEMPERATURE =   27.000 DEG C


******************************************************************************



  FREQ        IM(V1)      IM(V2)      IM(V3)      IP(V1)      IP(V2)      


   5.000E+02   1.254E+01   1.820E+01   6.000E+00  -1.565E+02   1.595E+01

**** 03/22/25 14:40:19 ******* PSpice Lite (March 2016) ******* ID# 10813 ****

 Lab5


 ****     AC ANALYSIS                      TEMPERATURE =   27.000 DEG C


******************************************************************************



  FREQ        IP(V3)      


   5.000E+02  -1.800E+02


          JOB CONCLUDED

**** 03/22/25 14:40:19 ******* PSpice Lite (March 2016) ******* ID# 10813 ****

 Lab5


 ****     JOB STATISTICS SUMMARY


******************************************************************************



  Total job time (using Solver 1)   =         .02
